7
xyz
O               -0.063225     0.065161     0.911428
H                0.016841    -0.010768     1.844969
H                0.531728    -0.562118     0.542340
N                0.034161    -0.034203     3.994977
H                0.502861    -0.743812     4.519315
H               -0.937241    -0.069502     4.225820
H                0.389743     0.852480     4.287401
